<?xml version="1.0" encoding="UTF-8"?>

<!-- generated on 11/03/20 18:05:06 by Eclipse SUMO netedit Version 1.7.0
<configuration xmlns:xsi="http://www.w3.org/2001/XMLSchema-instance" xsi:noNamespaceSchemaLocation="http://sumo.dlr.de/xsd/netconvertConfiguration.xsd">

    <input>
        <sumo-net-file value="C:\Users\Tienan%20Li\Documents\sumoTest\test.net.xml"/>
    </input>

    <output>
        <output-file value="C:\Users\Tienan%20Li\Documents\sumoTest\test.net.xml"/>
    </output>

    <processing>
        <geometry.min-radius.fix.railways value="false"/>
        <geometry.max-grade.fix value="false"/>
        <offset.disable-normalization value="true"/>
        <lefthand value="false"/>
    </processing>

    <junctions>
        <no-internal-links value="true"/>
        <no-turnarounds value="true"/>
        <junctions.corner-detail value="5"/>
        <junctions.limit-turn-speed value="5.5"/>
        <rectangular-lane-cut value="false"/>
    </junctions>

    <pedestrian>
        <walkingareas value="false"/>
    </pedestrian>

    <report>
        <aggregate-warnings value="5"/>
    </report>

</configuration>
-->

<net version="1.6" junctionCornerDetail="5" limitTurnSpeed="5.50" xmlns:xsi="http://www.w3.org/2001/XMLSchema-instance" xsi:noNamespaceSchemaLocation="http://sumo.dlr.de/xsd/net_file.xsd">

    <location netOffset="0.00,0.00" convBoundary="-100.00,0.00,1000.00,50.00" origBoundary="-10000000000.00,-10000000000.00,10000000000.00,10000000000.00" projParameter="!"/>

    <edge id="main" from="point1" to="point2" priority="-1">
        <lane id="main_0" index="0" speed="30.00" length="2000.00" shape="0.00,45.20 2000.00,45.20"/>
        <lane id="main_1" index="1" speed="30.00" length="2000.00" shape="0.00,48.40 2000.00,48.40"/>
    </edge>

    <junction id="point1" type="dead_end" x="0.00" y="50.00" incLanes="" intLanes="" shape="0.00,50.00 0.00,43.60"/>
    <junction id="point2" type="dead_end" x="2000.00" y="50.00" incLanes="main_0 main_1" intLanes="" shape="2000.00,43.60 1000.00,50.00"/>

</net>


